# generated using pymatgen
data_KZnF3
_symmetry_space_group_name_H-M   'P 1'
_cell_length_a   3.89449530
_cell_length_b   3.89449530
_cell_length_c   5.51158742
_cell_angle_alpha   90.00000000
_cell_angle_beta   90.00000000
_cell_angle_gamma   90.00000000
_symmetry_Int_Tables_number   1
_chemical_formula_structural   KZnF3
_chemical_formula_sum   'K1 Zn1 F3'
_cell_volume   83.59476251
_cell_formula_units_Z   1
loop_
 _symmetry_equiv_pos_site_id
 _symmetry_equiv_pos_as_xyz
  1  'x, y, z'
loop_
 _atom_site_type_symbol
 _atom_site_label
 _atom_site_symmetry_multiplicity
 _atom_site_fract_x
 _atom_site_fract_y
 _atom_site_fract_z
 _atom_site_occupancy
  K  K0  1  0.94863396  0.94688767  0.64691377  1
  Zn  Zn1  1  0.44977578  0.45015657  0.11660230  1
  F  F2  1  0.45339337  0.45182987  0.47107127  1
  F  F3  1  -0.05085029  0.45057750  0.00868861  1
  F  F4  1  0.44904725  -0.04945164  0.00672406  1
