# generated using pymatgen
data_KZnF3
_symmetry_space_group_name_H-M   'P 1'
_cell_length_a   3.84000000
_cell_length_b   3.84000000
_cell_length_c   6.24000000
_cell_angle_alpha   90.00000000
_cell_angle_beta   90.00000000
_cell_angle_gamma   90.00000000
_symmetry_Int_Tables_number   1
_chemical_formula_structural   KZnF3
_chemical_formula_sum   'K1 Zn1 F3'
_cell_volume   92.01254400
_cell_formula_units_Z   1
loop_
 _symmetry_equiv_pos_site_id
 _symmetry_equiv_pos_as_xyz
  1  'x, y, z'
loop_
 _atom_site_type_symbol
 _atom_site_label
 _atom_site_symmetry_multiplicity
 _atom_site_fract_x
 _atom_site_fract_y
 _atom_site_fract_z
 _atom_site_occupancy
  K  K0  1  0.50002254  0.00005903  0.45488134  1
  Zn  Zn1  1  -0.00003366  0.50013451  0.08480382  1
  F  F2  1  -0.00000210  -0.00021351  0.02451956  1
  F  F3  1  0.49996614  0.50003794  0.02463214  1
  F  F4  1  0.00004709  0.49998203  0.41116313  1
