# generated using pymatgen
data_KZnF3
_symmetry_space_group_name_H-M   'P 1'
_cell_length_a   5.38477541
_cell_length_b   5.38477541
_cell_length_c   3.44167331
_cell_angle_alpha   90.00000000
_cell_angle_beta   90.00000000
_cell_angle_gamma   90.00000000
_symmetry_Int_Tables_number   1
_chemical_formula_structural   KZnF3
_chemical_formula_sum   'K1 Zn1 F3'
_cell_volume   99.79409236
_cell_formula_units_Z   1
loop_
 _symmetry_equiv_pos_site_id
 _symmetry_equiv_pos_as_xyz
  1  'x, y, z'
loop_
 _atom_site_type_symbol
 _atom_site_label
 _atom_site_symmetry_multiplicity
 _atom_site_fract_x
 _atom_site_fract_y
 _atom_site_fract_z
 _atom_site_occupancy
  K  K0  1  -0.01428952  -0.01403744  -0.09787449  1
  Zn  Zn1  1  0.51936160  0.51925130  0.39761918  1
  F  F2  1  0.19190479  0.65284564  0.40110596  1
  F  F3  1  0.65274992  0.19192745  0.40105900  1
  F  F4  1  0.65027316  0.65001305  -0.10190966  1
