# generated using pymatgen
data_Ca6Al4P4(O5F2)3
_symmetry_space_group_name_H-M   'P 1'
_cell_length_a   12.16620232
_cell_length_b   8.87806434
_cell_length_c   7.03418446
_cell_angle_alpha   132.37148513
_cell_angle_beta   117.41395682
_cell_angle_gamma   46.39481518
_symmetry_Int_Tables_number   1
_chemical_formula_structural   Ca6Al4P4(O5F2)3
_chemical_formula_sum   'Ca6 Al4 P4 O15 F6'
_cell_volume   406.44163533
_cell_formula_units_Z   1
loop_
 _symmetry_equiv_pos_site_id
 _symmetry_equiv_pos_as_xyz
  1  'x, y, z'
loop_
 _atom_site_type_symbol
 _atom_site_label
 _atom_site_symmetry_multiplicity
 _atom_site_fract_x
 _atom_site_fract_y
 _atom_site_fract_z
 _atom_site_occupancy
  Ca  Ca0  1  0.89030858  0.42401343  1.11762544  1
  Ca  Ca1  1  0.20927359  0.24188550  -0.09019592  1
  Ca  Ca2  1  0.29752443  0.65225075  1.06855783  1
  Ca  Ca3  1  0.67823563  0.25835681  1.02883912  1
  Ca  Ca4  1  0.49817301  0.72559501  -0.04195013  1
  Ca  Ca5  1  0.81087040  0.77664784  0.00350504  1
  Al  Al6  1  -0.04318419  0.16777094  0.38486059  1
  Al  Al7  1  0.03615687  0.72887595  0.65061465  1
  Al  Al8  1  0.62452279  0.01274371  0.42740029  1
  Al  Al9  1  0.52390174  0.83650026  0.62645370  1
  P  P10  1  0.30348339  0.18005852  0.45723065  1
  P  P11  1  0.20402045  0.76131154  0.47951321  1
  P  P12  1  0.70145832  0.30031782  0.53125639  1
  P  P13  1  0.81821945  0.82435171  0.61040186  1
  O  O14  1  0.22332636  0.06786658  0.21438440  1
  O  O15  1  0.34865860  0.10723810  0.64161815  1
  O  O16  1  0.21037122  0.46540365  0.63329221  1
  O  O17  1  0.44487435  0.08779034  0.37089076  1
  O  O18  1  0.07715924  0.83430840  0.58047321  1
  O  O19  1  0.27792632  0.50453079  0.22208053  1
  O  O20  1  0.13298463  0.94697223  0.41061415  1
  O  O21  1  0.31089079  0.81361293  0.70127359  1
  O  O22  1  0.60516662  0.19654479  0.37202686  1
  O  O23  1  0.74336208  0.33318228  0.79231400  1
  O  O24  1  0.60989942  0.54812205  0.56005120  1
  O  O25  1  0.84273477  0.10148020  0.35519452  1
  O  O26  1  0.64120819  0.93131559  0.78956238  1
  O  O27  1  0.85183942  0.30635399  0.23043895  1
  O  O28  1  0.69076657  0.74907775  0.11146471  1
  F  F29  1  1.07317246  -0.13173968  -0.01589571  1
  F  F30  1  -0.04032032  0.38571748  0.70245135  1
  F  F31  1  0.01510437  0.52469226  0.14073944  1
  F  F32  1  0.44706456  -0.01813332  0.90854398  1
  F  F33  1  0.48160332  0.43624162  0.83665644  1
  F  F34  1  0.50924256  0.67874215  0.28991213  1
