# generated using pymatgen
data_RbAl(PO3)4
_symmetry_space_group_name_H-M   'P 1'
_cell_length_a   7.90481358
_cell_length_b   7.00595621
_cell_length_c   9.82360000
_cell_angle_alpha   90.00533946
_cell_angle_beta   89.99269464
_cell_angle_gamma   102.82230701
_symmetry_Int_Tables_number   1
_chemical_formula_structural   RbAl(PO3)4
_chemical_formula_sum   'Rb2 Al2 P8 O24'
_cell_volume   530.47192588
_cell_formula_units_Z   2
loop_
 _symmetry_equiv_pos_site_id
 _symmetry_equiv_pos_as_xyz
  1  'x, y, z'
loop_
 _atom_site_type_symbol
 _atom_site_label
 _atom_site_symmetry_multiplicity
 _atom_site_fract_x
 _atom_site_fract_y
 _atom_site_fract_z
 _atom_site_occupancy
  Rb  Rb0  1  0.27919953  0.25938465  0.04271631  1
  Rb  Rb1  1  0.72340192  0.74221743  0.54246278  1
  Al  Al2  1  0.20071562  0.71694828  0.43865106  1
  Al  Al3  1  0.80206815  0.28473408  0.93867163  1
  P  P4  1  1.00256210  0.41161040  0.37000687  1
  P  P5  1  0.14086006  0.12217813  0.51635673  1
  P  P6  1  0.33728748  0.61305946  0.72064225  1
  P  P7  1  0.47324561  0.08340867  0.40332719  1
  P  P8  1  0.52955187  0.91830566  0.90329294  1
  P  P9  1  0.66542898  0.38862073  0.22064929  1
  P  P10  1  0.86177497  0.87948140  0.01649574  1
  P  P11  1  0.00021175  0.59011457  0.87007391  1
  O  O12  1  -0.02853624  0.80312169  0.89663290  1
  O  O13  1  0.09243662  0.90128762  0.49135690  1
  O  O14  1  0.03117296  0.47540556  0.99347268  1
  O  O15  1  0.10653353  0.19427434  0.65062725  1
  O  O16  1  0.15649350  0.65496323  0.77121204  1
  O  O17  1  0.16177647  0.53815901  0.29986623  1
  O  O18  1  0.33524433  0.20447045  0.46050309  1
  O  O19  1  0.37032268  0.88568616  0.35442583  1
  O  O20  1  0.38674712  0.44330911  0.78127200  1
  O  O21  1  0.47302083  0.81232621  0.76063167  1
  O  O22  1  0.38369814  -0.09443549  0.99794512  1
  O  O23  1  0.32583132  0.63893968  0.56745955  1
  O  O24  1  0.67689167  0.36279226  0.06745815  1
  O  O25  1  0.61907792  1.09629187  0.49798959  1
  O  O26  1  0.52979442  0.18928244  0.26063299  1
  O  O27  1  0.61584282  0.55828277  0.28133394  1
  O  O28  1  0.63257412  0.11596302  0.85436012  1
  O  O29  1  0.66746647  0.79719200  -0.03948040  1
  O  O30  1  0.84098633  0.46360573  0.79994479  1
  O  O31  1  0.84626894  0.34685075  0.27117286  1
  O  O32  1  0.89593567  0.80735074  0.15078017  1
  O  O33  1  0.97163277  0.52623009  0.49347670  1
  O  O34  1  0.91021917  0.10038240  -0.00843757  1
  O  O35  1  1.03134427  0.19858882  0.39642407  1
